CemigDFeeders/PMSU15/PMSU15SegmentosMT.dss
new line.TR12111340 bus1=BMT171380591.1.2.3,bus2=BMT171380590.1.2.3,Phases=3,Linecode=CABA06_3_3,Length=0.030020000,Units=km
new line.TR12111344 bus1=BMT8703658B.1.2.3,bus2=BMT8703657B.1.2.3,Phases=3,Linecode=CABA06_3_3,Length=0.023024000,Units=km
new line.TR12111345 bus1=BMT8703657B.1.2.3,bus2=BMT8703656B.1.2.3,Phases=3,Linecode=CABA06_3_3,Length=0.022093000,Units=km
new line.TR12111347 bus1=BMT8703656B.1.2.3,bus2=BMT8703655B.1.2.3,Phases=3,Linecode=CABA06_3_3,Length=0.033064000,Units=km
new line.TR12111348 bus1=BMT8703655B.1.2.3,bus2=BMT151770378.1.2.3,Phases=3,Linecode=CABA06_3_3,Length=0.029072000,Units=km
new line.TR12111349 bus1=BMT148194129.1.2.3,bus2=BMT158270732.1.2.3,Phases=3,Linecode=CABA06_3_3,Length=0.033064000,Units=km
new line.TR12111386 bus1=BMT167392837.1.2.3,bus2=BMT8703644B.1.2.3,Phases=3,Linecode=CABA06_3_3,Length=0.029072000,Units=km
new line.TR12111390 bus1=BMT8703644B.1.2.3,bus2=BMT167392838.1.2.3,Phases=3,Linecode=CABA06_3_3,Length=0.032019000,Units=km
new line.TR12111391 bus1=BMT167392838.1.2.3,bus2=BMT8703626B.1.2.3,Phases=3,Linecode=CABA06_3_3,Length=0.030070000,Units=km
new line.TR12111408 bus1=BMT8703627B.1.2.3,bus2=BMT8703603B.1.2.3,Phases=3,Linecode=CABA06_3_3,Length=0.026022000,Units=km
new line.TR12111409 bus1=BMT8703603B.1.2.3,bus2=BMT156380439.1.2.3,Phases=3,Linecode=CABA06_3_3,Length=0.034238000,Units=km
new line.TR12111410 bus1=BMT167393301.1.2.3,bus2=BMT8703600B.1.2.3,Phases=3,Linecode=CABA06_3_3,Length=0.028163000,Units=km
new line.TR12111413 bus1=BMT8703600B.1.2.3,bus2=BMT167393302.1.2.3,Phases=3,Linecode=CABA06_3_3,Length=0.025023000,Units=km
new line.TR12111417 bus1=BMT167393302.1.2.3,bus2=BMT8703629B.1.2.3,Phases=3,Linecode=CABA06_3_3,Length=0.037058000,Units=km
new line.TR12111456 bus1=BMT8703541B.1.2.3,bus2=BMT148193855.1.2.3,Phases=3,Linecode=CABA06_3_3,Length=0.029158000,Units=km
new line.TR12111475 bus1=BMT8703629B.1.2.3,bus2=BMT167393303.1.2.3,Phases=3,Linecode=CABA06_3_3,Length=0.006084000,Units=km
new line.TR12111476 bus1=BMT167393303.1.2.3,bus2=BMT8703633B.1.2.3,Phases=3,Linecode=CABA06_3_3,Length=0.033019000,Units=km
new line.TR12111479 bus1=BMT167393303.1.2.3,bus2=BMT167393304.1.2.3,Phases=3,Linecode=CABA06_3_3,Length=0.028163000,Units=km
new line.TR12111480 bus1=BMT167393303.1.2.3,bus2=BMT8703913B.1.2.3,Phases=3,Linecode=CABA06_3_3,Length=0.009057000,Units=km
new line.TR12111481 bus1=BMT8703913B.1.2.3,bus2=BMT8703557B.1.2.3,Phases=3,Linecode=CABA06_3_3,Length=0.031068000,Units=km
new line.TR12111482 bus1=BMT8703557B.1.2.3,bus2=BMT8703559B.1.2.3,Phases=3,Linecode=CABA06_3_3,Length=0.036059000,Units=km
new line.TR12111487 bus1=BMT170891934.1.2.3,bus2=BMT170891935.1.2.3,Phases=3,Linecode=CABA06_3_3,Length=0.025083000,Units=km
new line.TR12111488 bus1=BMT170891935.1.2.3,bus2=BMT4161504B.1.2.3,Phases=3,Linecode=CABA06_3_3,Length=0.040116000,Units=km
new line.TR12111500 bus1=BMT8703626B.1.2.3,bus2=BMT167392839.1.2.3,Phases=3,Linecode=CABA06_3_3,Length=0.005100000,Units=km
new line.TR12111501 bus1=BMT8703627B.1.2.3,bus2=BMT167392839.1.2.3,Phases=3,Linecode=CABA06_3_3,Length=0.030003000,Units=km
new line.TR12111502 bus1=BMT167392839.1.2.3,bus2=BMT8703306B.1.2.3,Phases=3,Linecode=CABA06_3_3,Length=0.028287000,Units=km
new line.TR12111503 bus1=BMT8703306B.1.2.3,bus2=BMT8703304B.1.2.3,Phases=3,Linecode=CABA06_3_3,Length=0.029020000,Units=km
new line.TR12111504 bus1=BMT8703304B.1.2.3,bus2=BMT8703590B.1.2.3,Phases=3,Linecode=CABA06_3_3,Length=0.005658000,Units=km
new line.TR12111505 bus1=BMT8703590B.1.2.3,bus2=BMT167392840.1.2.3,Phases=3,Linecode=CABA06_3_3,Length=0.033140000,Units=km
new line.TR12111506 bus1=BMT167392839.1.2.3,bus2=BMT8703307B.1.2.3,Phases=3,Linecode=CABA06_3_3,Length=0.006001000,Units=km
new line.TR12111507 bus1=BMT8703307B.1.2.3,bus2=BMT148195246.1.2.3,Phases=3,Linecode=CABA06_3_3,Length=0.035061000,Units=km
new line.TR12111508 bus1=BMT171371751.1.2.3,bus2=BMT8703313B.1.2.3,Phases=3,Linecode=CABA06_3_3,Length=0.036059000,Units=km
new line.TR12111509 bus1=BMT8703313B.1.2.3,bus2=BMT8703314B.1.2.3,Phases=3,Linecode=CABA06_3_3,Length=0.035018000,Units=km
new line.TR12111510 bus1=BMT8703314B.1.2.3,bus2=BMT8703438B.1.2.3,Phases=3,Linecode=CABA06_3_3,Length=0.035132000,Units=km
new line.TR12111511 bus1=BMT8703438B.1.2.3,bus2=BMT8703439B.1.2.3,Phases=3,Linecode=CABA06_3_3,Length=0.035061000,Units=km
new line.TR12111512 bus1=BMT8703439B.1.2.3,bus2=BMT8703693B.1.2.3,Phases=3,Linecode=CABA06_3_3,Length=0.035061000,Units=km
new line.TR12111514 bus1=BMT8703693B.1.2.3,bus2=BMT171371752.1.2.3,Phases=3,Linecode=CABA06_3_3,Length=0.031260000,Units=km
new line.TR12111515 bus1=BMT171371752.1.2.3,bus2=BMT8704011B.1.2.3,Phases=3,Linecode=CABA06_3_3,Length=0.008247000,Units=km
new line.TR12111516 bus1=BMT171371752.1.2.3,bus2=BMT8703691B.1.2.3,Phases=3,Linecode=CABA06_3_3,Length=0.019028000,Units=km
new line.TR12111517 bus1=BMT8703691B.1.2.3,bus2=BMT8703690B.1.2.3,Phases=3,Linecode=CABA06_3_3,Length=0.031148000,Units=km
new line.TR12111518 bus1=BMT8703690B.1.2.3,bus2=BMT171371754.1.2.3,Phases=3,Linecode=CABA06_3_3,Length=0.029020000,Units=km
new line.TR12111519 bus1=BMT171371752.1.2.3,bus2=BMT8703692B.1.2.3,Phases=3,Linecode=CABA06_3_3,Length=0.006001000,Units=km
new line.TR12111520 bus1=BMT8703692B.1.2.3,bus2=BMT8704022B.1.2.3,Phases=3,Linecode=CABA06_3_3,Length=0.029072000,Units=km
new line.TR12111539 bus1=BMT8704022B.1.2.3,bus2=BMT8704023B.1.2.3,Phases=3,Linecode=CABA06_3_3,Length=0.033064000,Units=km
new line.TR12111549 bus1=BMT8704023B.1.2.3,bus2=BMT171371755.1.2.3,Phases=3,Linecode=CABA06_3_3,Length=0.030153000,Units=km
new line.TR12111564 bus1=BMT157310552.1.2.3,bus2=BMT4161259B.1.2.3,Phases=3,Linecode=CABA06_3_3,Length=0.028464000,Units=km
new line.TR12111565 bus1=BMT4161259B.1.2.3,bus2=BMT4161252B.1.2.3,Phases=3,Linecode=CABA06_3_3,Length=0.033140000,Units=km
new line.TR12111569 bus1=BMT8703694B.1.2.3,bus2=BMT8703695B.1.2.3,Phases=3,Linecode=CABA06_3_3,Length=0.006709000,Units=km
new line.TR12111570 bus1=BMT8703695B.1.2.3,bus2=BMT148200263.1.2.3,Phases=3,Linecode=CABA06_3_3,Length=0.034062000,Units=km
new line.TR12111595 bus1=BMT151770376.1.2.3,bus2=BMT8703697B.1.2.3,Phases=3,Linecode=CABA06_3_3,Length=0.039119000,Units=km
new line.TR12111596 bus1=BMT8703697B.1.2.3,bus2=BMT8703698B.1.2.3,Phases=3,Linecode=CABA06_3_3,Length=0.039055000,Units=km
new line.TR12111598 bus1=BMT8703698B.1.2.3,bus2=BMT8703699B.1.2.3,Phases=3,Linecode=CABA06_3_3,Length=0.037125000,Units=km
new line.TR12111599 bus1=BMT8703699B.1.2.3,bus2=BMT8703700B.1.2.3,Phases=3,Linecode=CABA06_3_3,Length=0.030070000,Units=km
new line.TR12111600 bus1=BMT8703700B.1.2.3,bus2=BMT8703701B.1.2.3,Phases=3,Linecode=CABA06_3_3,Length=0.032019000,Units=km
new line.TR12343144 bus1=BMT8704011B.1.2.3,bus2=BMT8945893B.1.2.3,Phases=3,Linecode=CABA06_3_3,Length=0.036128000,Units=km
new line.TR12343146 bus1=BMT8945893B.1.2.3,bus2=BMT8945894B.1.2.3,Phases=3,Linecode=CABA06_3_3,Length=0.036059000,Units=km
new line.TR12343147 bus1=BMT8945894B.1.2.3,bus2=BMT8945895B.1.2.3,Phases=3,Linecode=CABA06_3_3,Length=0.036128000,Units=km
new line.TR12343148 bus1=BMT8945895B.1.2.3,bus2=BMT8945896B.1.2.3,Phases=3,Linecode=CABA06_3_3,Length=0.042052000,Units=km
new line.TR12343149 bus1=BMT8945896B.1.2.3,bus2=BMT8945897B.1.2.3,Phases=3,Linecode=CABA06_3_3,Length=0.041114000,Units=km
new line.TR12343150 bus1=BMT8945897B.1.2.3,bus2=BMT8945898B.1.2.3,Phases=3,Linecode=CABA06_3_3,Length=0.040054000,Units=km
new line.TR12343151 bus1=BMT8945898B.1.2.3,bus2=BMT171371753.1.2.3,Phases=3,Linecode=CABA06_3_3,Length=0.005832000,Units=km
new line.TR12343154 bus1=BMT171371753.1.2.3,bus2=BMT171371757.1.2.3,Phases=3,Linecode=CABA06_3_3,Length=0.030070000,Units=km
new line.TR12343157 bus1=BMT171371757.1.2.3,bus2=BMT8945886B.1.2.3,Phases=3,Linecode=CABA06_3_3,Length=0.031068000,Units=km
new line.TR12343163 bus1=BMT171371753.1.2.3,bus2=BMT8945901B.1.2.3,Phases=3,Linecode=CABA06_3_3,Length=0.030070000,Units=km
new line.TR12343164 bus1=BMT8945901B.1.2.3,bus2=BMT8945902B.1.2.3,Phases=3,Linecode=CABA06_3_3,Length=0.031019000,Units=km
new line.TR12343165 bus1=BMT8945902B.1.2.3,bus2=BMT8945910B.1.2.3,Phases=3,Linecode=CABA06_3_3,Length=0.032066000,Units=km
new line.TR12343169 bus1=BMT8945910B.1.2.3,bus2=BMT171371758.1.2.3,Phases=3,Linecode=CABA06_3_3,Length=0.032806000,Units=km
new line.TR12344530 bus1=BMT8945886B.1.2.3,bus2=BMT8945884B.1.2.3,Phases=3,Linecode=CABA06_3_3,Length=0.031068000,Units=km
new line.TR12344531 bus1=BMT8945884B.1.2.3,bus2=BMT8945866B.1.2.3,Phases=3,Linecode=CABA06_3_3,Length=0.031148000,Units=km
new line.TR12344534 bus1=BMT8945866B.1.2.3,bus2=BMT171371759.1.2.3,Phases=3,Linecode=CABA06_3_3,Length=0.031019000,Units=km
new line.TR12344535 bus1=BMT8703559B.1.2.3,bus2=BMT8703640B.1.2.3,Phases=3,Linecode=CABA06_3_3,Length=0.037541000,Units=km
new line.TR12344536 bus1=BMT8703640B.1.2.3,bus2=BMT8703641B.1.2.3,Phases=3,Linecode=CABA06_3_3,Length=0.041634000,Units=km
new line.TR12344537 bus1=BMT8703641B.1.2.3,bus2=BMT8703642B.1.2.3,Phases=3,Linecode=CABA06_3_3,Length=0.039004000,Units=km
new line.TR12344702 bus1=BMT8703642B.1.2.3,bus2=BMT8947419B.1.2.3,Phases=3,Linecode=CABA06_3_3,Length=0.034932000,Units=km
new line.TR12344703 bus1=BMT8947419B.1.2.3,bus2=BMT156432720.1.2.3,Phases=3,Linecode=CABA06_3_3,Length=0.036225000,Units=km
new line.TR12344704 bus1=BMT168406723.1.2.3,bus2=BMT8947421B.1.2.3,Phases=3,Linecode=CABA06_3_3,Length=0.034529000,Units=km
new line.TR12344707 bus1=BMT8947421B.1.2.3,bus2=BMT8947422B.1.2.3,Phases=3,Linecode=CABA06_3_3,Length=0.038331000,Units=km
new line.TR12344709 bus1=BMT168406724.1.2.3,bus2=BMT8947424B.1.2.3,Phases=3,Linecode=CABA06_3_3,Length=0.034659000,Units=km
new line.TR12344710 bus1=BMT8947424B.1.2.3,bus2=BMT8947425B.1.2.3,Phases=3,Linecode=CABA06_3_3,Length=0.032988000,Units=km
new line.TR12344711 bus1=BMT8947425B.1.2.3,bus2=BMT8947426B.1.2.3,Phases=3,Linecode=CABA06_3_3,Length=0.032561000,Units=km
new line.TR12344712 bus1=BMT8947426B.1.2.3,bus2=BMT168406725.1.2.3,Phases=3,Linecode=CABA06_3_3,Length=0.040315000,Units=km
new line.TR12344713 bus1=BMT168406725.1.2.3,bus2=BMT8947428B.1.2.3,Phases=3,Linecode=CABA06_3_3,Length=0.007212000,Units=km
new line.TR12344714 bus1=BMT8947428B.1.2.3,bus2=BMT8947440B.1.2.3,Phases=3,Linecode=CABA06_3_3,Length=0.033974000,Units=km
new line.TR12344715 bus1=BMT8947440B.1.2.3,bus2=BMT168406727.1.2.3,Phases=3,Linecode=CABA06_3_3,Length=0.032806000,Units=km
new line.TR12344717 bus1=BMT168406725.1.2.3,bus2=BMT8947429B.1.2.3,Phases=3,Linecode=CABA06_3_3,Length=0.031260000,Units=km
new line.TR12344718 bus1=BMT8947429B.1.2.3,bus2=BMT8947430B.1.2.3,Phases=3,Linecode=CABA06_3_3,Length=0.033245000,Units=km
new line.TR12344719 bus1=BMT8947430B.1.2.3,bus2=BMT168406728.1.2.3,Phases=3,Linecode=CABA06_3_3,Length=0.031308000,Units=km
new line.TR12344720 bus1=BMT168406728.1.2.3,bus2=BMT158270675.1.2.3,Phases=3,Linecode=CABA06_3_3,Length=0.030890000,Units=km
new line.TR12344721 bus1=BMT168406381.1.2.3,bus2=BMT8947436B.1.2.3,Phases=3,Linecode=CABA06_3_3,Length=0.008247000,Units=km
new line.TR12344722 bus1=BMT8947436B.1.2.3,bus2=BMT8947503B.1.2.3,Phases=3,Linecode=CABA06_3_3,Length=0.030532000,Units=km
new line.TR12344723 bus1=BMT8947503B.1.2.3,bus2=BMT8947502B.1.2.3,Phases=3,Linecode=CABA06_3_3,Length=0.036719000,Units=km
new line.TR12344724 bus1=BMT8947502B.1.2.3,bus2=BMT8947501B.1.2.3,Phases=3,Linecode=CABA06_3_3,Length=0.041344000,Units=km
new line.TR12344725 bus1=BMT8947501B.1.2.3,bus2=BMT8947499B.1.2.3,Phases=3,Linecode=CABA06_3_3,Length=0.042194000,Units=km
new line.TR12344726 bus1=BMT8947499B.1.2.3,bus2=BMT8947497B.1.2.3,Phases=3,Linecode=CABA06_3_3,Length=0.037740000,Units=km
new line.TR12344727 bus1=BMT8947497B.1.2.3,bus2=BMT168406384.1.2.3,Phases=3,Linecode=CABA06_3_3,Length=0.005832000,Units=km
new line.TR12344728 bus1=BMT168406384.1.2.3,bus2=BMT168406386.1.2.3,Phases=3,Linecode=CABA06_3_3,Length=0.030532000,Units=km
new line.TR12344729 bus1=BMT168406384.1.2.3,bus2=BMT8947480B.1.2.3,Phases=3,Linecode=CABA06_3_3,Length=0.031388000,Units=km
new line.TR12344730 bus1=BMT8947480B.1.2.3,bus2=BMT8947473B.1.2.3,Phases=3,Linecode=CABA06_3_3,Length=0.030532000,Units=km
new line.TR12344731 bus1=BMT8947473B.1.2.3,bus2=BMT8947471B.1.2.3,Phases=3,Linecode=CABA06_3_3,Length=0.025557000,Units=km
new line.TR12344732 bus1=BMT8947471B.1.2.3,bus2=BMT168406387.1.2.3,Phases=3,Linecode=CABA06_3_3,Length=0.013040000,Units=km
new line.TR12344733 bus1=BMT168406387.1.2.3,bus2=BMT156432691.1.2.3,Phases=3,Linecode=CABA06_3_3,Length=0.013894000,Units=km
new line.TR12344734 bus1=BMT158554835.2,bus2=BMT158554836.2,Phases=1,Linecode=CABA06_3_1,Length=0.036363000,Units=km
new line.TR12344930 bus1=BMT158270675.1.2.3,bus2=BMT8947433B.1.2.3,Phases=3,Linecode=CABA06_3_3,Length=0.030532000,Units=km
new line.TR12344931 bus1=BMT8947433B.1.2.3,bus2=BMT8947434B.1.2.3,Phases=3,Linecode=CABA06_3_3,Length=0.031388000,Units=km
new line.TR12344932 bus1=BMT168406387.1.2.3,bus2=BMT8947463B.1.2.3,Phases=3,Linecode=CABA06_3_3,Length=0.020251000,Units=km
new line.TR12344933 bus1=BMT8947463B.1.2.3,bus2=BMT8947461B.1.2.3,Phases=3,Linecode=CABA06_3_3,Length=0.032576000,Units=km
new line.TR12344934 bus1=BMT8947461B.1.2.3,bus2=BMT168406389.1.2.3,Phases=3,Linecode=CABA06_3_3,Length=0.034789000,Units=km
new line.TR12344935 bus1=BMT168406724.2,bus2=BMT8947969B.2,Phases=1,Linecode=CAB103_3_1,Length=0.050254000,Units=km
new line.TR12344936 bus1=BMT8947969B.2,bus2=BMT168406726.2,Phases=1,Linecode=CAB103_3_1,Length=0.035132000,Units=km
new line.TR12111601 bus1=BMT8703701B.1.2.3,bus2=BMT8703702B.1.2.3,Phases=3,Linecode=CABA06_3_3,Length=0.030070000,Units=km
new line.TR12111605 bus1=BMT8703658B.1.2.3,bus2=BMT151770377.1.2.3,Phases=3,Linecode=CABA06_3_3,Length=0.007072000,Units=km
new line.TR12111607 bus1=BMT8703702B.1.2.3,bus2=BMT151770377.1.2.3,Phases=3,Linecode=CABA06_3_3,Length=0.026022000,Units=km
new line.TR12111612 bus1=BMT151770377.1.2.3,bus2=BMT8704082B.1.2.3,Phases=3,Linecode=CABA06_3_3,Length=0.006084000,Units=km
new line.TR12111613 bus1=BMT148194081.1.2.3,bus2=BMT151770379.1.2.3,Phases=3,Linecode=CABA06_3_3,Length=0.007072000,Units=km
new line.TR12111614 bus1=BMT151770377.1.2.3,bus2=BMT151770379.1.2.3,Phases=3,Linecode=CABA06_3_3,Length=0.024334000,Units=km
new line.TR12111615 bus1=BMT151770379.1.2.3,bus2=BMT8703751B.1.2.3,Phases=3,Linecode=CABA06_3_3,Length=0.007072000,Units=km
new line.TR12111616 bus1=BMT151770379.1.2.3,bus2=BMT148251095.1.2.3,Phases=3,Linecode=CABA06_3_3,Length=0.027169000,Units=km
new line.TR12111617 bus1=BMT151769084.1.2.3,bus2=BMT8703753B.1.2.3,Phases=3,Linecode=CABA06_3_3,Length=0.030070000,Units=km
new line.TR12111618 bus1=BMT8703753B.1.2.3,bus2=BMT151769085.1.2.3,Phases=3,Linecode=CABA06_3_3,Length=0.029020000,Units=km
new line.TR12111619 bus1=BMT151769085.1.2.3,bus2=BMT8703756B.1.2.3,Phases=3,Linecode=CABA06_3_3,Length=0.028021000,Units=km
new line.TR12111620 bus1=BMT8703756B.1.2.3,bus2=BMT8703757B.1.2.3,Phases=3,Linecode=CABA06_3_3,Length=0.007212000,Units=km
new line.TR12111624 bus1=BMT8703774B.1.2.3,bus2=BMT8703775B.1.2.3,Phases=3,Linecode=CABA06_3_3,Length=0.038122000,Units=km
new line.TR12111625 bus1=BMT8703775B.1.2.3,bus2=BMT8703777B.1.2.3,Phases=3,Linecode=CABA06_3_3,Length=0.037058000,Units=km
new line.TR12111626 bus1=BMT8703777B.1.2.3,bus2=BMT8703778B.1.2.3,Phases=3,Linecode=CABA06_3_3,Length=0.032066000,Units=km
new line.TR12111627 bus1=BMT8703778B.1.2.3,bus2=BMT8703779B.1.2.3,Phases=3,Linecode=CABA06_3_3,Length=0.032066000,Units=km
new line.TR12111628 bus1=BMT8703779B.1.2.3,bus2=BMT151769086.1.2.3,Phases=3,Linecode=CABA06_3_3,Length=0.039119000,Units=km
new line.TR12306005 bus1=BMT1102882B.1.2.3,bus2=BMT165172777.1.2.3,Phases=3,Linecode=CABA06_3_3,Length=0.017694000,Units=km
new line.TR12306006 bus1=BMT165172777.1.2.3,bus2=BMT1102875B.1.2.3,Phases=3,Linecode=CABA06_3_3,Length=0.007617000,Units=km
new line.TR12306007 bus1=BMT1102889B.1.2.3,bus2=BMT165172777.1.2.3,Phases=3,Linecode=CABA06_3_3,Length=0.031831000,Units=km
new line.TR12306008 bus1=BMT165172777.1.2.3,bus2=BMT8887347B.1.2.3,Phases=3,Linecode=CABA06_3_3,Length=0.011403000,Units=km
new line.TR12400619 bus1=BMT168406730.1.2.3,bus2=BMT9006998B.1.2.3,Phases=3,Linecode=CABA06_3_3,Length=0.032252000,Units=km
new line.TR12400621 bus1=BMT9006998B.1.2.3,bus2=BMT168406731.1.2.3,Phases=3,Linecode=CABA06_3_3,Length=0.007281000,Units=km
new line.TR12400622 bus1=BMT168406731.1.2.3,bus2=BMT9006997B.1.2.3,Phases=3,Linecode=CABA06_3_3,Length=0.007001000,Units=km
new line.TR12400623 bus1=BMT168406731.1.2.3,bus2=BMT9007002B.1.2.3,Phases=3,Linecode=CABA06_3_3,Length=0.026080000,Units=km
new line.TR12400624 bus1=BMT9007002B.1.2.3,bus2=BMT168406732.1.2.3,Phases=3,Linecode=CABA06_3_3,Length=0.033064000,Units=km
new line.TR12400626 bus1=BMT168406731.1.2.3,bus2=BMT168406733.1.2.3,Phases=3,Linecode=CABA06_3_3,Length=0.022206000,Units=km
new line.TR12400627 bus1=BMT168406733.1.2.3,bus2=BMT9006975B.1.2.3,Phases=3,Linecode=CABA06_3_3,Length=0.006084000,Units=km
new line.TR12400628 bus1=BMT9006975B.1.2.3,bus2=BMT9006977B.1.2.3,Phases=3,Linecode=CABA06_3_3,Length=0.040116000,Units=km
new line.TR12400629 bus1=BMT9006977B.1.2.3,bus2=BMT9006978B.1.2.3,Phases=3,Linecode=CABA06_3_3,Length=0.039055000,Units=km
new line.TR12400630 bus1=BMT9006978B.1.2.3,bus2=BMT168406734.1.2.3,Phases=3,Linecode=CABA06_3_3,Length=0.040116000,Units=km
new line.TR12400631 bus1=BMT168406733.1.2.3,bus2=BMT9006974B.1.2.3,Phases=3,Linecode=CABA06_3_3,Length=0.008001000,Units=km
new line.TR12400632 bus1=BMT9006974B.1.2.3,bus2=BMT9006971B.1.2.3,Phases=3,Linecode=CABA06_3_3,Length=0.024023000,Units=km
new line.TR12400633 bus1=BMT9006971B.1.2.3,bus2=BMT168406735.1.2.3,Phases=3,Linecode=CABA06_3_3,Length=0.028074000,Units=km
new line.TR12400637 bus1=BMT168406733.1.2.3,bus2=BMT9006980B.1.2.3,Phases=3,Linecode=CABA06_3_3,Length=0.023003000,Units=km
new line.TR12400638 bus1=BMT9006980B.1.2.3,bus2=BMT168406736.1.2.3,Phases=3,Linecode=CABA06_3_3,Length=0.025182000,Units=km
new line.TR12400639 bus1=BMT168406736.1.2.3,bus2=BMT9006982B.1.2.3,Phases=3,Linecode=CABA06_3_3,Length=0.007811000,Units=km
new line.TR12400640 bus1=BMT9006982B.1.2.3,bus2=BMT9006983B.1.2.3,Phases=3,Linecode=CABA06_3_3,Length=0.038056000,Units=km
new line.TR12400641 bus1=BMT9006983B.1.2.3,bus2=BMT9006984B.1.2.3,Phases=3,Linecode=CABA06_3_3,Length=0.039119000,Units=km
new line.TR12400642 bus1=BMT9006984B.1.2.3,bus2=BMT168406737.1.2.3,Phases=3,Linecode=CABA06_3_3,Length=0.031068000,Units=km
new line.TR12400643 bus1=BMT168406736.1.2.3,bus2=BMT9006986B.1.2.3,Phases=3,Linecode=CABA06_3_3,Length=0.028163000,Units=km
new line.TR12400644 bus1=BMT9006986B.1.2.3,bus2=BMT168406738.1.2.3,Phases=3,Linecode=CABA06_3_3,Length=0.026309000,Units=km
new line.TR12400645 bus1=BMT168406738.1.2.3,bus2=BMT9006989B.1.2.3,Phases=3,Linecode=CABA06_3_3,Length=0.009221000,Units=km
new line.TR12400646 bus1=BMT9006989B.1.2.3,bus2=BMT9006991B.1.2.3,Phases=3,Linecode=CABA06_3_3,Length=0.035132000,Units=km
new line.TR12400647 bus1=BMT9006991B.1.2.3,bus2=BMT9006992B.1.2.3,Phases=3,Linecode=CABA06_3_3,Length=0.036059000,Units=km
new line.TR12400648 bus1=BMT9006992B.1.2.3,bus2=BMT168406739.1.2.3,Phases=3,Linecode=CABA06_3_3,Length=0.039055000,Units=km
new line.TR12400649 bus1=BMT168406738.1.2.3,bus2=BMT168406740.1.2.3,Phases=3,Linecode=CABA06_3_3,Length=0.027169000,Units=km
new line.TR12400650 bus1=BMT168406735.1.2.3,bus2=BMT9006961B.1.2.3,Phases=3,Linecode=CABA06_3_3,Length=0.007811000,Units=km
new line.TR12400651 bus1=BMT9006961B.1.2.3,bus2=BMT9006963B.1.2.3,Phases=3,Linecode=CABA06_3_3,Length=0.041114000,Units=km
new line.TR12400652 bus1=BMT9006963B.1.2.3,bus2=BMT9006964B.1.2.3,Phases=3,Linecode=CABA06_3_3,Length=0.040054000,Units=km
new line.TR12400653 bus1=BMT9006964B.1.2.3,bus2=BMT168406741.1.2.3,Phases=3,Linecode=CABA06_3_3,Length=0.039119000,Units=km
new line.TR12400654 bus1=BMT168406735.1.2.3,bus2=BMT158268483.1.2.3,Phases=3,Linecode=CABA06_3_3,Length=0.028021000,Units=km
new line.TR12400655 bus1=BMT171373956.1.2.3,bus2=BMT171373957.1.2.3,Phases=3,Linecode=CABA06_3_3,Length=0.026080000,Units=km
new line.TR12400656 bus1=BMT171373957.1.2.3,bus2=BMT9006952B.1.2.3,Phases=3,Linecode=CABA06_3_3,Length=0.007811000,Units=km
new line.TR12400657 bus1=BMT9006952B.1.2.3,bus2=BMT9006953B.1.2.3,Phases=3,Linecode=CABA06_3_3,Length=0.042111000,Units=km
new line.TR12400658 bus1=BMT9006953B.1.2.3,bus2=BMT9006954B.1.2.3,Phases=3,Linecode=CABA06_3_3,Length=0.038056000,Units=km
new line.TR12400659 bus1=BMT9006954B.1.2.3,bus2=BMT171373958.1.2.3,Phases=3,Linecode=CABA06_3_3,Length=0.040116000,Units=km
new line.TR12400660 bus1=BMT171373957.1.2.3,bus2=BMT9006950B.1.2.3,Phases=3,Linecode=CABA06_3_3,Length=0.026080000,Units=km
new line.TR12400661 bus1=BMT9006950B.1.2.3,bus2=BMT171373959.1.2.3,Phases=3,Linecode=CABA06_3_3,Length=0.028074000,Units=km
new line.TR12400662 bus1=BMT171373959.1.2.3,bus2=BMT9006945B.1.2.3,Phases=3,Linecode=CABA06_3_3,Length=0.007212000,Units=km
new line.TR12400663 bus1=BMT9006945B.1.2.3,bus2=BMT9006947B.1.2.3,Phases=3,Linecode=CABA06_3_3,Length=0.040116000,Units=km
new line.TR12400664 bus1=BMT9006947B.1.2.3,bus2=BMT9006948B.1.2.3,Phases=3,Linecode=CABA06_3_3,Length=0.038056000,Units=km
new line.TR12400665 bus1=BMT9006948B.1.2.3,bus2=BMT171373960.1.2.3,Phases=3,Linecode=CABA06_3_3,Length=0.038056000,Units=km
new line.TR12400668 bus1=BMT171373959.1.2.3,bus2=BMT9006943B.1.2.3,Phases=3,Linecode=CABA06_3_3,Length=0.028021000,Units=km
new line.TR12400669 bus1=BMT9006943B.1.2.3,bus2=BMT171373961.1.2.3,Phases=3,Linecode=CABA06_3_3,Length=0.027077000,Units=km
new line.TR12400670 bus1=BMT171373961.1.2.3,bus2=BMT9006939B.1.2.3,Phases=3,Linecode=CABA06_3_3,Length=0.009221000,Units=km
new line.TR12400671 bus1=BMT9006939B.1.2.3,bus2=BMT9006940B.1.2.3,Phases=3,Linecode=CABA06_3_3,Length=0.035061000,Units=km
new line.TR12400672 bus1=BMT9006940B.1.2.3,bus2=BMT9006941B.1.2.3,Phases=3,Linecode=CABA06_3_3,Length=0.037125000,Units=km
new line.TR12400673 bus1=BMT9006941B.1.2.3,bus2=BMT171373962.1.2.3,Phases=3,Linecode=CABA06_3_3,Length=0.037058000,Units=km
new line.TR12400674 bus1=BMT171373961.1.2.3,bus2=BMT9006937B.1.2.3,Phases=3,Linecode=CABA06_3_3,Length=0.027077000,Units=km
new line.TR12400675 bus1=BMT9006937B.1.2.3,bus2=BMT171373963.1.2.3,Phases=3,Linecode=CABA06_3_3,Length=0.028074000,Units=km
new line.TR12400676 bus1=BMT171373963.1.2.3,bus2=BMT9006932B.1.2.3,Phases=3,Linecode=CABA06_3_3,Length=0.009435000,Units=km
new line.TR12400677 bus1=BMT9006932B.1.2.3,bus2=BMT9006933B.1.2.3,Phases=3,Linecode=CABA06_3_3,Length=0.037125000,Units=km
new line.TR12400678 bus1=BMT9006933B.1.2.3,bus2=BMT9006934B.1.2.3,Phases=3,Linecode=CABA06_3_3,Length=0.037058000,Units=km
new line.TR12400680 bus1=BMT171373963.1.2.3,bus2=BMT171373965.1.2.3,Phases=3,Linecode=CABA06_3_3,Length=0.030020000,Units=km
new line.TR12400702 bus1=BMT168406391.1.2.3,bus2=BMT8947486B.1.2.3,Phases=3,Linecode=CABA06_3_3,Length=0.003606000,Units=km
new line.TR12400703 bus1=BMT168406391.1.2.3,bus2=BMT8947487B.1.2.3,Phases=3,Linecode=CABA06_3_3,Length=0.004473000,Units=km
new line.TR12400704 bus1=BMT8947486B.1.2.3,bus2=BMT158268380.1.2.3,Phases=3,Linecode=CABA06_3_3,Length=0.035851000,Units=km
new line.TR12400705 bus1=BMT168406391.1.2.3,bus2=BMT9007071B.1.2.3,Phases=3,Linecode=CABA06_3_3,Length=0.025810000,Units=km
new line.TR12400712 bus1=BMT9007071B.1.2.3,bus2=BMT9007073B.1.2.3,Phases=3,Linecode=CABA06_3_3,Length=0.031388000,Units=km
new line.TR12400713 bus1=BMT9007073B.1.2.3,bus2=BMT9007074B.1.2.3,Phases=3,Linecode=CABA06_3_3,Length=0.039967000,Units=km
new line.TR12400714 bus1=BMT9007074B.1.2.3,bus2=BMT9007075B.1.2.3,Phases=3,Linecode=CABA06_3_3,Length=0.039967000,Units=km
new line.TR12400715 bus1=BMT9007075B.1.2.3,bus2=BMT168406392.1.2.3,Phases=3,Linecode=CABA06_3_3,Length=0.040821000,Units=km
new line.TR12400724 bus1=BMT158268376.1.2.3,bus2=BMT9007033B.1.2.3,Phases=3,Linecode=CABA06_3_3,Length=0.027077000,Units=km
new line.TR12400725 bus1=BMT9007033B.1.2.3,bus2=BMT9007034B.1.2.3,Phases=3,Linecode=CABA06_3_3,Length=0.008604000,Units=km
new line.TR12400726 bus1=BMT9007034B.1.2.3,bus2=BMT9007035B.1.2.3,Phases=3,Linecode=CABA06_3_3,Length=0.035061000,Units=km
new line.TR12400727 bus1=BMT9007035B.1.2.3,bus2=BMT168406605.1.2.3,Phases=3,Linecode=CABA06_3_3,Length=0.035061000,Units=km
new line.TR12400728 bus1=BMT168406605.1.2.3,bus2=BMT9007038B.1.2.3,Phases=3,Linecode=CABA06_3_3,Length=0.027298000,Units=km
new line.TR12400729 bus1=BMT9007038B.1.2.3,bus2=BMT168406603.1.2.3,Phases=3,Linecode=CABA06_3_3,Length=0.026929000,Units=km
new line.TR12400730 bus1=BMT168406603.1.2.3,bus2=BMT9007041B.1.2.3,Phases=3,Linecode=CABA06_3_3,Length=0.033290000,Units=km
new line.TR12400731 bus1=BMT9007041B.1.2.3,bus2=BMT9007042B.1.2.3,Phases=3,Linecode=CABA06_3_3,Length=0.033619000,Units=km
...
