CemigDFeeders/PMSU15/PMSU15ChavesMT.dss
new line.CTR133228 bus1=BMT124011766.1.2.3,bus2=BMT157310538.1.2.3,Phases=3,LineCode=tieSwitch,Length=0.001,Units=km,switch=T !numEQ 232513
new line.CTR133235 bus1=BMT124011927.1.2.3,bus2=BMT161357581.1.2.3,Phases=3,LineCode=tieSwitch,Length=0.001,Units=km,switch=T !numEQ 43910
new line.CTR133459 bus1=BMT123995435.1.2.3,bus2=BMT123995477.1.2.3,Phases=3,LineCode=tieSwitch,Length=0.001,Units=km,switch=T !numEQ 54608
new line.CTR133466 bus1=BMT124011605.1.2.3,bus2=BMT124012431.1.2.3,Phases=3,LineCode=tieSwitch,Length=0.001,Units=km,switch=T !numEQ 54609
new line.CTR133473 bus1=BMT124011640.1.2.3,bus2=BMT124012375.1.2.3,Phases=3,LineCode=tieSwitch,Length=0.001,Units=km,switch=T !numEQ 125555
new line.CTR133487 bus1=BMT156691999.1.2.3,bus2=BMT3435086.1.2.3,Phases=3,LineCode=tieSwitch,Length=0.001,Units=km,switch=T !numEQ 55107
open line.CTR133487 term=1
new line.CTR133655 bus1=BMT124012025.1.2.3,bus2=BMT170891927.1.2.3,Phases=3,LineCode=tieSwitch,Length=0.001,Units=km,switch=T !numEQ 221494
new line.CTR133676 bus1=BMT123995225.1.2.3,bus2=BMT159369759.1.2.3,Phases=3,LineCode=tieSwitch,Length=0.001,Units=km,switch=T !numEQ 43083
new line.CTR133900 bus1=BMT124011717.1.2.3,bus2=BMT165172774.1.2.3,Phases=3,LineCode=tieSwitch,Length=0.001,Units=km,switch=T !numEQ 43214
new line.CTR133914 bus1=BMT169388317.1.2.3,bus2=BMT124013201.1.2.3,Phases=3,LineCode=tieSwitch,Length=0.001,Units=km,switch=T !numEQ 113100
open line.CTR133914 term=1
new line.CTR134194 bus1=BMT156691983.1.2.3,bus2=BMT123992579.1.2.3,Phases=3,LineCode=tieSwitch,Length=0.001,Units=km,switch=T !numEQ 183468
new line.CTR134327 bus1=BMT124011514.1.2.3,bus2=BMT168703060.1.2.3,Phases=3,LineCode=tieSwitch,Length=0.001,Units=km,switch=T !numEQ 55094
new line.CTR134334 bus1=BMT152933860.1.2.3,bus2=BMT164802421.1.2.3,Phases=3,LineCode=tieSwitch,Length=0.001,Units=km,switch=T !numEQ 168437
new line.CTR134348 bus1=BMT123995218.1.2.3,bus2=BMT123995260.1.2.3,Phases=3,LineCode=tieSwitch,Length=0.001,Units=km,switch=T !numEQ 54904
new line.CTR134768 bus1=BMT123951237.1.2.3,bus2=BMT149109682.1.2.3,Phases=3,LineCode=tieSwitch,Length=0.001,Units=km,switch=T !numEQ 189554
new line.CTR330905 bus1=BMT161358090.1.2.3,bus2=BMT161358100.1.2.3,Phases=3,LineCode=tieSwitch,Length=0.001,Units=km,switch=T !numEQ 63155
open line.CTR330905 term=1
new line.CTR5338 bus1=BMT123994791.1.2.3,bus2=BMT150344967.1.2.3,Phases=3,LineCode=tieSwitch,Length=0.001,Units=km,switch=T !numEQ 54595
new line.CTR53785 bus1=BMT168703066.1.2.3,bus2=BMT124011591.1.2.3,Phases=3,LineCode=tieSwitch,Length=0.001,Units=km,switch=T !numEQ 43517
new line.CTR879560 bus1=BMT159432602.1.2.3,bus2=BMT161618719.1.2.3,Phases=3,LineCode=tieSwitch,Length=0.001,Units=km,switch=T !numEQ 376863
new line.CTR899504 bus1=BMT166523827.1.2.3,bus2=BMT168239331.1.2.3,Phases=3,LineCode=tieSwitch,Length=0.001,Units=km,switch=T !numEQ 272469
new line.CTR914033 bus1=BMT171437693.1.2.3,bus2=BMT171437756.1.2.3,Phases=3,LineCode=tieSwitch,Length=0.001,Units=km,switch=T !numEQ 248481
new line.CTR117429 bus1=BMT149877228.1.2.3,bus2=BMT124011955.1.2.3,Phases=3,LineCode=tieSwitch,Length=0.001,Units=km,switch=T !numEQ 54527
open line.CTR117429 term=1
new line.CTR130379 bus1=BMT123992558.1.2.3,bus2=BMT123994749.1.2.3,Phases=3,LineCode=tieSwitch,Length=0.001,Units=km,switch=T !numEQ 176216
new line.CTR130596 bus1=BMT156691993.1.2.3,bus2=BMT123992222.1.2.3,Phases=3,LineCode=tieSwitch,Length=0.001,Units=km,switch=T !numEQ 55040
open line.CTR130596 term=1
new line.CTR130642 bus1=BMT171380953.1.2.3,bus2=BMT171371944.1.2.3,Phases=3,LineCode=tieSwitch,Length=0.001,Units=km,switch=T !numEQ 99157
open line.CTR130642 term=1
new line.CTR130981 bus1=BMT123992600.1.2.3,bus2=BMT123992649.1.2.3,Phases=3,LineCode=tieSwitch,Length=0.001,Units=km,switch=T !numEQ 209282
new line.CTR131219 bus1=BMT173262301.1.2.3,bus2=BMT3081208.1.2.3,Phases=3,LineCode=tieSwitch,Length=0.001,Units=km,switch=T !numEQ 42113
open line.CTR131219 term=1
new line.CTR143609 bus1=BMT3432349.1.2.3,bus2=BMT156691989.1.2.3,Phases=3,LineCode=tieSwitch,Length=0.001,Units=km,switch=T !numEQ 189493
new line.CTR22754 bus1=BMT124011339.1.2.3,bus2=BMT170103052.1.2.3,Phases=3,LineCode=tieSwitch,Length=0.001,Units=km,switch=T !numEQ 43075
new line.CTR313781 bus1=BMT124012137.1.2.3,bus2=BMT148171496.1.2.3,Phases=3,LineCode=tieSwitch,Length=0.001,Units=km,switch=T !numEQ 229021
new line.CTR313788 bus1=BMT124012172.1.2.3,bus2=BMT166000370.1.2.3,Phases=3,LineCode=tieSwitch,Length=0.001,Units=km,switch=T !numEQ 229022
new line.CTR42018 bus1=BMT149109678.1.2.3,bus2=BMT123951209.1.2.3,Phases=3,LineCode=tieSwitch,Length=0.001,Units=km,switch=T !numEQ 189553
open line.CTR42018 term=1
new line.CTR5233 bus1=BMT123952644.1.2.3,bus2=BMT149070669.1.2.3,Phases=3,LineCode=tieSwitch,Length=0.001,Units=km,switch=T !numEQ 32937
new line.CTR5254 bus1=BMT161322123.1.2.3,bus2=BMT123952756.1.2.3,Phases=3,LineCode=tieSwitch,Length=0.001,Units=km,switch=T !numEQ 55902
new line.CTR5261 bus1=BMT123952889.1.2.3,bus2=BMT123952903.1.2.3,Phases=3,LineCode=tieSwitch,Length=0.001,Units=km,switch=T !numEQ 55085
new line.CTR875608 bus1=BMT159917807.1.2.3,bus2=BMT162047479.1.2.3,Phases=3,LineCode=tieSwitch,Length=0.001,Units=km,switch=T !numEQ 376856
new line.CTR875609 bus1=BMT159919495.1.2.3,bus2=BMT162046171.1.2.3,Phases=3,LineCode=tieSwitch,Length=0.001,Units=km,switch=T !numEQ 188906
open line.CTR875609 term=1
new line.CTR883591 bus1=BMT160281537.1.2.3,bus2=BMT160281538.1.2.3,Phases=3,LineCode=tieSwitch,Length=0.001,Units=km,switch=T !numEQ 169870
new line.CTR911472 bus1=BMT171890020.1.2.3,bus2=BMT171890026.1.2.3,Phases=3,LineCode=tieSwitch,Length=0.001,Units=km,switch=T !numEQ 279944
new line.CTR911474 bus1=BMT170586739.1.2.3,bus2=BMT171558786.1.2.3,Phases=3,LineCode=tieSwitch,Length=0.001,Units=km,switch=T !numEQ 279945
new line.CTR915877 bus1=BMT171988098.1.2.3,bus2=BMT171988373.1.2.3,Phases=3,LineCode=tieSwitch,Length=0.001,Units=km,switch=T !numEQ 280333
new line.CTR915878 bus1=BMT171989503.1.2.3,bus2=BMT171989505.1.2.3,Phases=3,LineCode=tieSwitch,Length=0.001,Units=km,switch=T !numEQ 280332
new line.CTR917094 bus1=BMT172381360.1,bus2=BMT173112964.1,Phases=1,LineCode=tieSwitch1,Length=0.001,Units=km,switch=T !numEQ 327046
new line.CTRR17051 bus1=BMT169919372.1.2.3,bus2=BMT124011185.1.2.3,Phases=3,LineCode=tieSwitch,Length=0.001,Units=km,switch=T !numEQ 169869
open line.CTRR17051 term=1
new line.CTRR17058 bus1=BMT123995316.1.2.3,bus2=BMT160281533.1.2.3,Phases=3,LineCode=tieSwitch,Length=0.001,Units=km,switch=T !numEQ 289154
new line.CTR100454 bus1=BMT124012403.2,bus2=BMT124012410.2,Phases=1,LineCode=tieSwitch1,Length=0.001,Units=km,switch=T !numEQ 125556
new line.CTR100489 bus1=BMT124012305.1.2.3,bus2=BMT124012340.1.2.3,Phases=3,LineCode=tieSwitch,Length=0.001,Units=km,switch=T !numEQ 168551
new line.CTR129035 bus1=BMT171380949.1.2.3,bus2=BMT171380119.1.2.3,Phases=3,LineCode=tieSwitch,Length=0.001,Units=km,switch=T !numEQ 54012
new line.CTR199154 bus1=BMT124011304.1.2.3,bus2=BMT168238236.1.2.3,Phases=3,LineCode=tieSwitch,Length=0.001,Units=km,switch=T !numEQ 257215
new line.CTR234952 bus1=BMT124012473.1.2.3,bus2=BMT152934891.1.2.3,Phases=3,LineCode=tieSwitch,Length=0.001,Units=km,switch=T !numEQ 189005
new line.CTR32673 bus1=BMT160281679.1.2.3,bus2=BMT164170170.1.2.3,Phases=3,LineCode=tieSwitch,Length=0.001,Units=km,switch=T !numEQ 376859
new line.CTR435679 bus1=BMT139597889.1.2.3,bus2=BMT169460874.1.2.3,Phases=3,LineCode=tieSwitch,Length=0.001,Units=km,switch=T !numEQ 302404
new line.CTR436659 bus1=BMT139835826.1.2.3,bus2=BMT139836652.1.2.3,Phases=3,LineCode=tieSwitch,Length=0.001,Units=km,switch=T !numEQ 307165
new line.CTR5541 bus1=BMT123992502.1.2.3,bus2=BMT123994763.1.2.3,Phases=3,LineCode=tieSwitch,Length=0.001,Units=km,switch=T !numEQ 55105
new line.CTR882709 bus1=BMT162046169.1.2.3,bus2=BMT159917460.1.2.3,Phases=3,LineCode=tieSwitch,Length=0.001,Units=km,switch=T !numEQ 376861
new line.CTR882717 bus1=BMT159919992.1.2.3,bus2=BMT159923695.1.2.3,Phases=3,LineCode=tieSwitch,Length=0.001,Units=km,switch=T !numEQ 376858
new line.CTR882718 bus1=BMT159920147.1.2.3,bus2=BMT162047296.1.2.3,Phases=3,LineCode=tieSwitch,Length=0.001,Units=km,switch=T !numEQ 376860
new line.CTR882723 bus1=BMT159921931.1.2.3,bus2=BMT171437691.1.2.3,Phases=3,LineCode=tieSwitch,Length=0.001,Units=km,switch=T !numEQ 376989
new line.CTR882724 bus1=BMT171890030.1.2.3,bus2=BMT159922301.1.2.3,Phases=3,LineCode=tieSwitch,Length=0.001,Units=km,switch=T !numEQ 376857
open line.CTR882724 term=1
new line.CTRR31041 bus1=BMT124011626.1.2.3,bus2=BMT152937562.1.2.3,Phases=3,LineCode=tieSwitch,Length=0.001,Units=km,switch=T !numEQ 315324
new line.CTRR6304 bus1=BMT171558549.1.2.3,bus2=BMT171558616.1.2.3,Phases=3,LineCode=tieSwitch,Length=0.001,Units=km,switch=T !numEQ 279946
new line.CTR13570 bus1=BMT152087463.2,bus2=BMT152087467.2,Phases=1,LineCode=tieSwitch1,Length=0.001,Units=km,switch=T !numEQ 168439
new line.CTR146430 bus1=BMT123952546.1.2.3,bus2=BMT161322116.1.2.3,Phases=3,LineCode=tieSwitch,Length=0.001,Units=km,switch=T !numEQ 55089
new line.CTR225278 bus1=BMT161357583.1.2.3,bus2=BMT161357586.1.2.3,Phases=3,LineCode=tieSwitch,Length=0.001,Units=km,switch=T !numEQ 54201
open line.CTR225278 term=1
new line.CTR247580 bus1=BMT171380950.1.2.3,bus2=BMT171379549.1.2.3,Phases=3,LineCode=tieSwitch,Length=0.001,Units=km,switch=T !numEQ 55057
new line.CTR31868 bus1=BMT171380951.1.2.3,bus2=BMT171380952.1.2.3,Phases=3,LineCode=tieSwitch,Length=0.001,Units=km,switch=T !numEQ 57981
new line.CTR372931 bus1=BMT172381366.1.2.3,bus2=BMT124012949.1.2.3,Phases=3,LineCode=tieSwitch,Length=0.001,Units=km,switch=T !numEQ 286401
new line.CTR5268 bus1=BMT158526648.1.2.3,bus2=BMT3432482.1.2.3,Phases=3,LineCode=tieSwitch,Length=0.001,Units=km,switch=T !numEQ 42100
new line.CTR5275 bus1=BMT123995043.1.2.3,bus2=BMT154087427.1.2.3,Phases=3,LineCode=tieSwitch,Length=0.001,Units=km,switch=T !numEQ 42099
new line.CTR613775 bus1=BMT171380591.1.2.3,bus2=BMT171380944.1.2.3,Phases=3,LineCode=tieSwitch,Length=0.001,Units=km,switch=T !numEQ 75231
new line.CTR844036 bus1=BMT167393304.1.2.3,bus2=BMT148193855.1.2.3,Phases=3,LineCode=tieSwitch,Length=0.001,Units=km,switch=T !numEQ 315317
open line.CTR844036 term=1
new line.CTR844038 bus1=BMT156432720.1.2.3,bus2=BMT168406723.1.2.3,Phases=3,LineCode=tieSwitch,Length=0.001,Units=km,switch=T !numEQ 315318
new line.CTR844040 bus1=BMT148251095.1.2.3,bus2=BMT151769084.1.2.3,Phases=3,LineCode=tieSwitch,Length=0.001,Units=km,switch=T !numEQ 315321
new line.CTR844041 bus1=BMT151770378.1.2.3,bus2=BMT148194129.1.2.3,Phases=3,LineCode=tieSwitch,Length=0.001,Units=km,switch=T !numEQ 315320
new line.CTR844045 bus1=BMT148195246.1.2.3,bus2=BMT171371751.1.2.3,Phases=3,LineCode=tieSwitch,Length=0.001,Units=km,switch=T !numEQ 315319
new line.CTR844063 bus1=BMT148200263.1.2.3,bus2=BMT151770376.1.2.3,Phases=3,LineCode=tieSwitch,Length=0.001,Units=km,switch=T !numEQ 315323
new line.CTR844117 bus1=BMT148194081.1.2.3,bus2=BMT171380590.1.2.3,Phases=3,LineCode=tieSwitch,Length=0.001,Units=km,switch=T !numEQ 315322
new line.CTR844718 bus1=BMT156691991.1.2.3,bus2=BMT148395801.1.2.3,Phases=3,LineCode=tieSwitch,Length=0.001,Units=km,switch=T !numEQ 287745
open line.CTR844718 term=1
new line.CTR864771 bus1=BMT154155883.1.2.3,bus2=BMT158526645.1.2.3,Phases=3,LineCode=tieSwitch,Length=0.001,Units=km,switch=T !numEQ 298425
new line.CTR865146 bus1=BMT154293596.1.2.3,bus2=BMT165172823.1.2.3,Phases=3,LineCode=tieSwitch,Length=0.001,Units=km,switch=T !numEQ 239700
new line.CTR878127 bus1=BMT168406740.1.2.3,bus2=BMT158268376.1.2.3,Phases=3,LineCode=tieSwitch,Length=0.001,Units=km,switch=T !numEQ 254998
open line.CTR878127 term=1
new line.CTR878128 bus1=BMT158268380.1.2.3,bus2=BMT168406601.1.2.3,Phases=3,LineCode=tieSwitch,Length=0.001,Units=km,switch=T !numEQ 254999
new line.CTR878130 bus1=BMT158268483.1.2.3,bus2=BMT171373956.1.2.3,Phases=3,LineCode=tieSwitch,Length=0.001,Units=km,switch=T !numEQ 254997
new line.CTR878133 bus1=BMT158270675.1.2.3,bus2=BMT168406381.1.2.3,Phases=3,LineCode=tieSwitch,Length=0.001,Units=km,switch=T !numEQ 255000
new line.CTR913839 bus1=BMT171371756.1.2.3,bus2=BMT171372026.1.2.3,Phases=3,LineCode=tieSwitch,Length=0.001,Units=km,switch=T !numEQ 319654
new line.CTR913847 bus1=BMT171380954.1.2.3,bus2=BMT171373876.1.2.3,Phases=3,LineCode=tieSwitch,Length=0.001,Units=km,switch=T !numEQ 319652
new line.CTR11372 bus1=BMT123995421.1.2.3,bus2=BMT2936504.1.2.3,Phases=3,LineCode=tieSwitch,Length=0.001,Units=km,switch=T !numEQ 54626
open line.CTR11372 term=1
new line.CTR214176 bus1=BMT124011983.1.2.3,bus2=BMT161352742.1.2.3,Phases=3,LineCode=tieSwitch,Length=0.001,Units=km,switch=T !numEQ 169930
new line.CTR230955 bus1=BMT171380364.2,bus2=BMT171380360.2,Phases=1,LineCode=tieSwitch1,Length=0.001,Units=km,switch=T !numEQ 43364
new line.CTR289860 bus1=BMT124008868.1.2.3,bus2=BMT133422825.1.2.3,Phases=3,LineCode=tieSwitch,Length=0.001,Units=km,switch=T !numEQ 223307
open line.CTR289860 term=1
new line.CTR290511 bus1=BMT124012886.1.2.3,bus2=BMT172381357.1.2.3,Phases=3,LineCode=tieSwitch,Length=0.001,Units=km,switch=T !numEQ 226900
new line.CTR431773 bus1=BMT138411165.1.2.3,bus2=BMT160881656.1.2.3,Phases=3,LineCode=tieSwitch,Length=0.001,Units=km,switch=T !numEQ 309205
new line.CTR7138357 bus1=BMT2007138326.1.2.3,bus2=BMT2389066665.1.2.3,Phases=3,LineCode=tieSwitch,Length=0.001,Units=km,switch=T !numEQ 
new line.CTR7138359 bus1=BMT2389066665.1.2.3,bus2=BMT2007138325.1.2.3,Phases=3,LineCode=tieSwitch,Length=0.001,Units=km,switch=T !numEQ 
new line.CTR7138896 bus1=BMT2007138897.1.2.3,bus2=BMT2007138326.1.2.3,Phases=3,LineCode=tieSwitch,Length=0.001,Units=km,switch=T !numEQ 
new line.CTR858766 bus1=BMT152455982.1.2.3,bus2=BMT160955885.1.2.3,Phases=3,LineCode=tieSwitch,Length=0.001,Units=km,switch=T !numEQ 159405
new line.CTR859676 bus1=BMT152704156.1.2.3,bus2=BMT160171477.1.2.3,Phases=3,LineCode=tieSwitch,Length=0.001,Units=km,switch=T !numEQ 235075
new line.CTR872144 bus1=BMT156380439.1.2.3,bus2=BMT167393301.1.2.3,Phases=3,LineCode=tieSwitch,Length=0.001,Units=km,switch=T !numEQ 378295
new line.CTR872394 bus1=BMT156432691.2,bus2=BMT158554835.2,Phases=1,LineCode=tieSwitch1,Length=0.001,Units=km,switch=T !numEQ 378296
new line.CTR881457 bus1=BMT159432710.1.2.3,bus2=BMT169388303.1.2.3,Phases=3,LineCode=tieSwitch,Length=0.001,Units=km,switch=T !numEQ 258593
new line.CTR894454 bus1=BMT164654770.1.2.3,bus2=BMT168338480.1.2.3,Phases=3,LineCode=tieSwitch,Length=0.001,Units=km,switch=T !numEQ 257217
new line.CTR904989 bus1=BMT168306645.1.2.3,bus2=BMT168306647.1.2.3,Phases=3,LineCode=tieSwitch,Length=0.001,Units=km,switch=T !numEQ 272987
new line.CTRR34608 bus1=BMT156346797.1.2.3,bus2=BMT171628478.1.2.3,Phases=3,LineCode=tieSwitch,Length=0.001,Units=km,switch=T !numEQ 289293
new line.CTR144743 bus1=BMT171380368.2,bus2=BMT171379474.2,Phases=1,LineCode=tieSwitch1,Length=0.001,Units=km,switch=T !numEQ 55136
new line.CTR144750 bus1=BMT123952574.1.2.3,bus2=BMT149134566.1.2.3,Phases=3,LineCode=tieSwitch,Length=0.001,Units=km,switch=T !numEQ 55087
new line.CTR144967 bus1=BMT149109711.1.2.3,bus2=BMT123952658.1.2.3,Phases=3,LineCode=tieSwitch,Length=0.001,Units=km,switch=T !numEQ 43222
open line.CTR144967 term=1
new line.CTR145562 bus1=BMT149134574.1.2.3,bus2=BMT149033276.1.2.3,Phases=3,LineCode=tieSwitch,Length=0.001,Units=km,switch=T !numEQ 294464
open line.CTR145562 term=1
new line.CTR145569 bus1=BMT123952679.1.2.3,bus2=BMT123952686.1.2.3,Phases=3,LineCode=tieSwitch,Length=0.001,Units=km,switch=T !numEQ 33269
new line.CTR145723 bus1=BMT149032759.1.2.3,bus2=BMT149109703.1.2.3,Phases=3,LineCode=tieSwitch,Length=0.001,Units=km,switch=T !numEQ 377090
new line.CTR264534 bus1=BMT124012739.1.2.3,bus2=BMT124012746.1.2.3,Phases=3,LineCode=tieSwitch,Length=0.001,Units=km,switch=T !numEQ 189476
new line.CTR131408 bus1=BMT123995393.1.2.3,bus2=BMT124009379.1.2.3,Phases=3,LineCode=tieSwitch,Length=0.001,Units=km,switch=T !numEQ 54728
new line.CTR131436 bus1=BMT173262305.1.2.3,bus2=BMT173262311.1.2.3,Phases=3,LineCode=tieSwitch,Length=0.001,Units=km,switch=T !numEQ 54725
new line.CTR131597 bus1=BMT123995211.1.2.3,bus2=BMT129999832.1.2.3,Phases=3,LineCode=tieSwitch,Length=0.001,Units=km,switch=T !numEQ 282072
new line.CTR131653 bus1=BMT167342291.1.2.3,bus2=BMT2936392.1.2.3,Phases=3,LineCode=tieSwitch,Length=0.001,Units=km,switch=T !numEQ 168457
open line.CTR131653 term=1
new line.CTR131842 bus1=BMT124011668.1.2.3,bus2=BMT171989499.1.2.3,Phases=3,LineCode=tieSwitch,Length=0.001,Units=km,switch=T !numEQ 43898
new line.CTR131849 bus1=BMT124011731.1.2.3,bus2=BMT124012242.1.2.3,Phases=3,LineCode=tieSwitch,Length=0.001,Units=km,switch=T !numEQ 55292
new line.CTR132066 bus1=BMT123995085.1.2.3,bus2=BMT169068092.1.2.3,Phases=3,LineCode=tieSwitch,Length=0.001,Units=km,switch=T !numEQ 42097
new line.CTR132115 bus1=BMT124011738.1.2.3,bus2=BMT170604804.1.2.3,Phases=3,LineCode=tieSwitch,Length=0.001,Units=km,switch=T !numEQ 43677
new line.CTR132122 bus1=BMT124011675.1.2.3,bus2=BMT152936827.1.2.3,Phases=3,LineCode=tieSwitch,Length=0.001,Units=km,switch=T !numEQ 377071
new line.CTR132353 bus1=BMT123995057.1.2.3,bus2=BMT169067994.1.2.3,Phases=3,LineCode=tieSwitch,Length=0.001,Units=km,switch=T !numEQ 42098
new line.CTR132444 bus1=BMT123995449.1.2.3,bus2=BMT173262298.1.2.3,Phases=3,LineCode=tieSwitch,Length=0.001,Units=km,switch=T !numEQ 268283
open line.CTR132444 term=1
new line.CTR132479 bus1=BMT124011255.1.2.3,bus2=BMT124013208.1.2.3,Phases=3,LineCode=tieSwitch,Length=0.001,Units=km,switch=T !numEQ 54727
new line.CTR132486 bus1=BMT124011311.1.2.3,bus2=BMT124011493.1.2.3,Phases=3,LineCode=tieSwitch,Length=0.001,Units=km,switch=T !numEQ 207444
new line.CTR132493 bus1=BMT124011500.1.2.3,bus2=BMT148791806.1.2.3,Phases=3,LineCode=tieSwitch,Length=0.001,Units=km,switch=T !numEQ 54520
new line.CTR132507 bus1=BMT124011752.1.2.3,bus2=BMT124012221.1.2.3,Phases=3,LineCode=tieSwitch,Length=0.001,Units=km,switch=T !numEQ 54718
new line.CTR132605 bus1=BMT124011661.1.2.3,bus2=BMT124011682.1.2.3,Phases=3,LineCode=tieSwitch,Length=0.001,Units=km,switch=T !numEQ 42136
new line.CTR132731 bus1=BMT123995365.1.2.3,bus2=BMT161617241.1.2.3,Phases=3,LineCode=tieSwitch,Length=0.001,Units=km,switch=T !numEQ 42109
new line.CTR132759 bus1=BMT123995463.1.2.3,bus2=BMT123995470.1.2.3,Phases=3,LineCode=tieSwitch,Length=0.001,Units=km,switch=T !numEQ 42111
open line.CTR132759 term=1
new line.CTR132773 bus1=BMT124011283.1.2.3,bus2=BMT171890013.1.2.3,Phases=3,LineCode=tieSwitch,Length=0.001,Units=km,switch=T !numEQ 376862
new line.CTR132969 bus1=BMT123995134.1.2.3,bus2=BMT167342289.1.2.3,Phases=3,LineCode=tieSwitch,Length=0.001,Units=km,switch=T !numEQ 168456
new line.CTR133018 bus1=BMT124012298.1.2.3,bus2=BMT149877226.1.2.3,Phases=3,LineCode=tieSwitch,Length=0.001,Units=km,switch=T !numEQ 43899
new line.CTR133025 bus1=BMT124012354.1.2.3,bus2=BMT124012361.1.2.3,Phases=3,LineCode=tieSwitch,Length=0.001,Units=km,switch=T !numEQ 54610
new line.CTR208555 bus1=BMT123995568.1.2.3,bus2=BMT167321243.1.2.3,Phases=3,LineCode=tieSwitch,Length=0.001,Units=km,switch=T !numEQ 55135
new line.CTR241161 bus1=BMT171380114.2,bus2=BMT171380369.2,Phases=1,LineCode=tieSwitch1,Length=0.001,Units=km,switch=T !numEQ 54955
new line.CTR851419 bus1=BMT150209433.1.2.3,bus2=BMT150209511.1.2.3,Phases=3,LineCode=tieSwitch,Length=0.001,Units=km,switch=T !numEQ 800849
new line.CTR851420 bus1=BMT150209512.1.2.3,bus2=BMT150209536.1.2.3,Phases=3,LineCode=tieSwitch,Length=0.001,Units=km,switch=T !numEQ 800850
new line.CTR909017 bus1=BMT170103058.1.2.3,bus2=BMT169767322.1.2.3,Phases=3,LineCode=tieSwitch,Length=0.001,Units=km,switch=T !numEQ 276554
open line.CTR909017 term=1
new line.CTRR40622 bus1=BMT168238237.1.2.3,bus2=BMT168238238.1.2.3,Phases=3,LineCode=tieSwitch,Length=0.001,Units=km,switch=T !numEQ 257216
new line.CTR215989 bus1=BMT123952896.1.2.3,bus2=BMT123950250.1.2.3,Phases=3,LineCode=tieSwitch,Length=0.001,Units=km,switch=T !numEQ 294462
open line.CTR215989 term=1
new line.CTR383067 bus1=BMT123992628.1.2.3,bus2=BMT123994735.1.2.3,Phases=3,LineCode=tieSwitch,Length=0.001,Units=km,switch=T !numEQ 294279
new line.CTR43775 bus1=BMT153289797.1.2.3,bus2=BMT152557760.1.2.3,Phases=3,LineCode=tieSwitch,Length=0.001,Units=km,switch=T !numEQ 193082
open line.CTR43775 term=1
new line.CTR43824 bus1=BMT124012088.1,bus2=BMT170892310.1,Phases=1,LineCode=tieSwitch1,Length=0.001,Units=km,switch=T !numEQ 214446
new line.CTR76192 bus1=BMT123995400.1.2.3,bus2=BMT123995407.1.2.3,Phases=3,LineCode=tieSwitch,Length=0.001,Units=km,switch=T !numEQ 42110
new line.CTR867071 bus1=BMT154810915.1.2.3,bus2=BMT158526642.1.2.3,Phases=3,LineCode=tieSwitch,Length=0.001,Units=km,switch=T !numEQ 298422
new line.CTR97087 bus1=BMT124011962.1.2.3,bus2=BMT153289790.1.2.3,Phases=3,LineCode=tieSwitch,Length=0.001,Units=km,switch=T !numEQ 54719
new line.CTRR39754 bus1=BMT158270732.1.2.3,bus2=BMT167392837.1.2.3,Phases=3,LineCode=tieSwitch,Length=0.001,Units=km,switch=T !numEQ 255001
