CemigDFeeders/PMSU15/PMSU15SegmentosBT.dss
new line.1189045 bus1=BBT1389434.1.2.3.0,bus2=BBT1389427.1.2.3.0,Phases=3,Linecode=BT809_BT809_4_3_4,Length=0.027661000,Units=km
new line.1189052 bus1=BBT1389455.1.2.3.0,bus2=BBT1389448.1.2.3.0,Phases=3,Linecode=BT809_BT809_4_3_4,Length=0.021843000,Units=km
new line.1189059 bus1=BBT1389462.1.2.3.0,bus2=BBT1389434.1.2.3.0,Phases=3,Linecode=BT809_BT809_4_3_4,Length=0.025713000,Units=km
new line.1189066 bus1=BBT1389469.1.2.3.0,bus2=BBT1389455.1.2.3.0,Phases=3,Linecode=BT809_BT809_4_3_4,Length=0.028865000,Units=km
new line.1189073 bus1=BBT1389469.2.3.0,bus2=BBT3431306.2.3.0,Phases=2,Linecode=BT305_BT305_5_2_1,Length=0.004473000,Units=km
new line.1189080 bus1=BBT1389476.1.2.3.0,bus2=BBT1389462.1.2.3.0,Phases=3,Linecode=BT809_BT809_4_3_4,Length=0.008063000,Units=km
new line.1189087 bus1=BBT1389476.1.2.3.0,bus2=BBT1389469.1.2.3.0,Phases=3,Linecode=BT108_BT108_7_3_1,Length=0.025713000,Units=km
new line.1189094 bus1=BBT1389476.1.2.3.0,bus2=BBT3431243.1.2.3.0,Phases=3,Linecode=BT306_BT306_5_3_1,Length=0.003606000,Units=km
new line.1189101 bus1=BBT1389504.1.2.3.0,bus2=BBT1389483.1.2.3.0,Phases=3,Linecode=BT805_BT805_4_3_4,Length=0.033959000,Units=km
new line.1189108 bus1=BBT1389420.1.2.3.0,bus2=BBT1389504.1.2.3.0,Phases=3,Linecode=BT514_BT514_7_3_1,Length=0.000501000,Units=km
new line.1189115 bus1=BBT1389504.1.2.3.0,bus2=BBT1389511.1.2.3.0,Phases=3,Linecode=BT805_BT805_4_3_4,Length=0.032283000,Units=km
new line.1189122 bus1=BBT1389511.1.2.3.0,bus2=BBT1389546.1.2.3.0,Phases=3,Linecode=BT108_BT108_7_3_1,Length=0.035472000,Units=km
new line.1189129 bus1=BBT1389532.1.2.3.0,bus2=BBT1389490.1.2.3.0,Phases=3,Linecode=BT107_BT107_7_3_1,Length=0.023540000,Units=km
new line.1189136 bus1=BBT1389546.1.2.3.0,bus2=BBT1389532.1.2.3.0,Phases=3,Linecode=BT107_BT107_7_3_1,Length=0.006084000,Units=km
new line.1189143 bus1=BBT1389546.1.2.3.0,bus2=BBT1389553.1.2.3.0,Phases=3,Linecode=BT108_BT108_7_3_1,Length=0.004473000,Units=km
new line.1189150 bus1=BBT1389546.1.2.3.0,bus2=BBT1389595.1.2.3.0,Phases=3,Linecode=BT107_BT107_7_3_1,Length=0.025301000,Units=km
new line.1189157 bus1=BBT1389553.1.2.3.0,bus2=BBT1389567.1.2.3.0,Phases=3,Linecode=BT108_BT108_7_3_1,Length=0.021589000,Units=km
new line.1189164 bus1=BBT1389567.1.2.3.0,bus2=BBT1389588.1.2.3.0,Phases=3,Linecode=BT108_BT108_7_3_1,Length=0.021192000,Units=km
new line.1189171 bus1=BBT1389595.1.2.3.0,bus2=BBT1389637.1.2.3.0,Phases=3,Linecode=BT107_BT107_7_3_1,Length=0.028865000,Units=km
new line.1189178 bus1=BBT1389595.1.3.0,bus2=BBT3431194.1.3.0,Phases=2,Linecode=BT305_BT305_5_2_1,Length=0.004001000,Units=km
new line.1189185 bus1=BBT1389637.1.2.3.0,bus2=BBT1389679.1.2.3.0,Phases=3,Linecode=BT107_BT107_7_3_1,Length=0.035174000,Units=km
new line.1189192 bus1=BBT1389679.1.2.3.0,bus2=BBT1389686.1.2.3.0,Phases=3,Linecode=BT107_BT106_7_3_1,Length=0.008486000,Units=km
new line.1189199 bus1=BBT1389679.1.2.3.0,bus2=BBT1389700.1.2.3.0,Phases=3,Linecode=BT107_BT107_7_3_1,Length=0.024518000,Units=km
new line.1189206 bus1=BBT3098008.1.2.3.0,bus2=BBT3098022.1.2.3.0,Phases=3,Linecode=BT107_BT106_7_3_1,Length=0.024189000,Units=km
new line.1189416 bus1=BBT1389952.1.2.3.0,bus2=BBT1389945.1.2.3.0,Phases=3,Linecode=BT803_BT803_4_3_4,Length=0.024044000,Units=km
new line.1189423 bus1=BBT1389959.1.2.3.0,bus2=BBT1389952.1.2.3.0,Phases=3,Linecode=BT803_BT803_4_3_4,Length=0.032576000,Units=km
new line.1189437 bus1=BBT1389973.1.2.3.0,bus2=BBT1389966.1.2.3.0,Phases=3,Linecode=BT108_BT108_7_3_1,Length=0.036500000,Units=km
new line.1189444 bus1=BBT1389980.1.2.3.0,bus2=BBT1389959.1.2.3.0,Phases=3,Linecode=BT803_BT803_4_3_4,Length=0.030679000,Units=km
new line.1189451 bus1=BBT1389980.1.2.3.0,bus2=BBT1389987.1.2.3.0,Phases=3,Linecode=BT108_BT108_7_3_1,Length=0.016126000,Units=km
new line.1189465 bus1=BBT1389987.1.2.3.0,bus2=BBT1389973.1.2.3.0,Phases=3,Linecode=BT108_BT108_7_3_1,Length=0.034369000,Units=km
new line.1189472 bus1=BBT1389994.1.2.3.0,bus2=BBT1389980.1.2.3.0,Phases=3,Linecode=BT803_BT803_4_3_4,Length=0.018250000,Units=km
new line.1189479 bus1=BBT1390001.1.2.3.0,bus2=BBT1389994.1.2.3.0,Phases=3,Linecode=BT803_BT803_4_3_4,Length=0.037487000,Units=km
new line.1189486 bus1=BBT1389938.1.2.3.0,bus2=BBT1390001.1.2.3.0,Phases=3,Linecode=BT514_BT514_7_3_1,Length=0.000501000,Units=km
new line.1189493 bus1=BBT1390001.1.2.3.0,bus2=BBT1390008.1.2.3.0,Phases=3,Linecode=BT803_BT803_4_3_4,Length=0.034529000,Units=km
new line.1189500 bus1=BBT1390008.1.2.3.0,bus2=BBT1390015.1.2.3.0,Phases=3,Linecode=BT803_BT803_4_3_4,Length=0.037487000,Units=km
new line.1189507 bus1=BBT1390015.1.2.3.0,bus2=BBT1390029.1.2.3.0,Phases=3,Linecode=BT803_BT803_4_3_4,Length=0.015299000,Units=km
new line.1189514 bus1=BBT1390029.1.2.3.0,bus2=BBT1390022.1.2.3.0,Phases=3,Linecode=BT108_BT107_7_3_1,Length=0.018441000,Units=km
new line.1189521 bus1=BBT1390029.1.2.3.0,bus2=BBT1390036.1.2.3.0,Phases=3,Linecode=BT803_BT803_4_3_4,Length=0.019237000,Units=km
...